
#P UwB97X/6-311G** TD

TDDFT single-point job to assess G16 functionality.

0 6
Mn       -2.120738  1.696775  0.374566
 O       -0.620735  0.363802  0.028085
 O       -3.361513  1.216805  1.896058
 C        0.110938  0.083045 -1.001034
 C        0.007708  0.752238 -2.260671
 C        1.090804 -0.942090 -0.903176
 C        0.862387  0.385032 -3.322305
 C        1.901194 -1.274893 -1.960154
 H        1.165552 -1.457389  0.048924
 C        1.798639 -0.610354 -3.194799
 H        0.763382  0.914461 -4.267881
 H        2.634496 -2.067576 -1.838694
 H        2.443293 -0.879381 -4.023599
 C       -4.438042  1.749181  2.375923
 C       -5.020332  2.962650  1.889793
 C       -5.106885  1.112762  3.457279
 C       -6.200506  3.461474  2.481080
 C       -6.250990  1.631793  4.010777
 H       -4.670273  0.189202  3.823200
 C       -6.818943  2.823572  3.527511
 H       -6.622706  4.383865  2.086860
 H       -6.727050  1.108429  4.835672
 H       -7.724284  3.224405  3.968677
 C       -0.933310  1.814668 -2.523485
 H       -0.865172  2.250033 -3.531091
 C       -4.474369  3.717384  0.786325
 H       -5.065308  4.594766  0.484695
 N       -1.817528  2.277630 -1.716676
 N       -3.397270  3.452922  0.143027
 C       -2.703363  3.343343 -2.170720
 H       -2.270884  3.908130 -3.006936
 H       -3.644448  2.895069 -2.512612
 C       -3.006228  4.271857 -0.992082
 H       -2.093551  4.818793 -0.727196
 H       -3.779152  5.002850 -1.265445
 O       -0.691360  2.207196  2.020732
 H       -0.093806  1.471707  1.831925
 H       -1.209753  1.940102  2.786978

